Version 4
SHEET 1 880 680
WIRE 224 64 112 64
WIRE 16 112 -16 112
WIRE 112 112 112 64
WIRE 112 240 112 192
FLAG -16 112 1
IOPIN -16 112 In
FLAG 224 64 2
IOPIN 224 64 Out
FLAG 112 240 0
SYMBOL bv 112 96 R0
SYMATTR InstName Gain
SYMATTR Value V={K*V(1)}
TEXT -48 24 Left 2 ;Ideal Gain
