Version 4
SHEET 1 880 680
WIRE 16 144 -192 144
WIRE 96 144 16 144
WIRE 304 144 160 144
WIRE 304 160 304 144
WIRE 320 160 304 160
WIRE 432 176 384 176
WIRE -192 192 -192 144
WIRE 320 192 304 192
WIRE 16 224 16 144
WIRE 96 224 16 224
WIRE 208 224 160 224
WIRE 304 224 304 192
WIRE 304 224 272 224
WIRE -192 336 -192 272
FLAG 432 176 Vout
FLAG -192 336 0
FLAG -192 144 Vin
SYMBOL gain 128 144 R0
WINDOW 39 -37 -46 Left 0
SYMATTR SpiceLine K={R2/R1}
SYMATTR InstName X1
SYMBOL gain 128 224 R0
WINDOW 39 -39 40 Left 0
SYMATTR SpiceLine K={1/(R1*C)}
SYMATTR InstName X2
SYMBOL integrator 240 224 R0
SYMATTR InstName X3
SYMBOL adder 352 176 R0
SYMATTR InstName X4
SYMBOL voltage -192 176 R0
WINDOW 123 35 110 Left 2
WINDOW 39 0 0 Left 0
WINDOW 3 35 82 Left 2
SYMATTR Value2 AC 1
SYMATTR Value ""
SYMATTR InstName V1
TEXT -192 -32 Left 2 !.param R1=1k\n.param R2=2.7k\n.param C=20n
TEXT -192 56 Left 2 !.ac dec 100 1 10Meg
