Version 4
SHEET 1 880 680
WIRE 16 0 -48 0
WIRE 144 0 16 0
WIRE 288 0 208 0
WIRE 384 0 288 0
WIRE 16 48 16 0
WIRE 288 112 288 0
WIRE 16 224 16 128
WIRE 288 224 288 192
WIRE 288 224 16 224
WIRE 16 288 16 224
FLAG 16 288 0
FLAG -48 0 Vin
FLAG 384 0 Vout
SYMBOL voltage 16 32 R0
WINDOW 123 24 124 Left 2
WINDOW 39 0 0 Left 0
SYMATTR Value2 AC 1
SYMATTR InstName V1
SYMATTR Value ""
SYMBOL res 272 96 R0
SYMATTR InstName R1
SYMATTR Value 1k
SYMBOL cap 208 -16 R90
WINDOW 0 0 32 VBottom 2
WINDOW 3 32 32 VTop 2
SYMATTR InstName C1
SYMATTR Value 1µ
TEXT -344 -80 Left 2 !.ac lin 1000 1 5000
TEXT -336 -264 Left 2 ;High Pass Filter\n \nfc=1/(2*PI*R1*C1) - cutoff frequency\n \nCutoff frequency if the frequency where the amplitude dropes by 70% (20 dB))
